#########
OS:Version,
  {88b7d8b3-2bb4-4d1a-a303-c42f1b94b944}, !- Handle
  3.2.0;                                  !- Version Identifier

OS:YearDescription,
  {e67f57ec-4561-430e-805d-1e474db94987}, !- Handle
  ,                                       !- Calendar Year
  Sunday;                                 !- Day of Week for Start Day

OS:Building,
  {c9ddc007-a698-49af-bcfd-1fd866b7cffa}, !- Handle
  プロジェクト名,                  !- Name
  ,                                       !- Building Sector Type
  ,                                       !- North Axis {deg}
  ,                                       !- Nominal Floor to Floor Height {m}
  ,                                       !- Space Type Name
  ,                                       !- Default Construction Set Name
  ;                                       !- Default Schedule Set Name

OS:Facility,
  {3291dae2-eb76-419b-9468-449ddd34d489}; !- Handle

OS:SimulationControl,
  {3db1df53-3568-4e3f-8a01-70e4a66dd701}; !- Handle

OS:Sizing:Parameters,
  {72747eab-fde5-492f-bbe9-8a1f76474dbb}, !- Handle
  1.25,                                   !- Heating Sizing Factor
  1.15;                                   !- Cooling Sizing Factor

OS:Timestep,
  {4a403777-6bbe-40ea-a4e2-37f05aea9b19}, !- Handle
  6;                                      !- Number of Timesteps per Hour

OS:ShadowCalculation,
  {3ffc3e3a-df4b-457f-b2ef-3f546bf9382d}, !- Handle
  PolygonClipping,                        !- Shading Calculation Method
  ,                                       !- Shading Calculation Update Frequency Method
  20,                                     !- Shading Calculation Update Frequency
  15000,                                  !- Maximum Figures in Shadow Overlap Calculations
  ,                                       !- Polygon Clipping Algorithm
  512,                                    !- Pixel Counting Resolution
  ,                                       !- Sky Diffuse Modeling Algorithm
  No,                                     !- Output External Shading Calculation Results
  No,                                     !- Disable Self-Shading Within Shading Zone Groups
  No;                                     !- Disable Self-Shading From Shading Zone Groups to Other Zones

OS:HeatBalanceAlgorithm,
  {fdff750c-5cb7-4699-ad92-7bd9e4767431}, !- Handle
  ConductionTransferFunction,             !- Algorithm
  200;                                    !- Surface Temperature Upper Limit {C}

OS:RunPeriod,
  {b6ab7190-cd15-4f07-abda-5be4c64338ed}, !- Handle
  Run Period 1,                           !- Name
  1,                                      !- Begin Month
  1,                                      !- Begin Day of Month
  12,                                     !- End Month
  31,                                     !- End Day of Month
  ,                                       !- Use Weather File Holidays and Special Days
  ,                                       !- Use Weather File Daylight Saving Period
  ,                                       !- Apply Weekend Holiday Rule
  ,                                       !- Use Weather File Rain Indicators
  ,                                       !- Use Weather File Snow Indicators
  ;                                       !- Number of Times Runperiod to be Repeated

OS:LifeCycleCost:Parameters,
  {302a7ecf-a059-413f-9ce6-bab060c4abdb}, !- Handle
  FEMP,                                   !- Analysis Type
  ,                                       !- Discounting Convention
  ,                                       !- Inflation Approach
  ,                                       !- Real Discount Rate
  ,                                       !- Nominal Discount Rate
  ,                                       !- Inflation
  ,                                       !- Base Date Month
  ,                                       !- Base Date Year
  ,                                       !- Service Date Month
  ,                                       !- Service Date Year
  ,                                       !- Length of Study Period in Years
  ,                                       !- Tax Rate
  ,                                       !- Depreciation Method
  Yes;                                    !- Use NIST Fuel Escalation Rates

OS:Space,
  {3728adb4-f66c-4b22-9d06-419504cf38be}, !- Handle
  男子トイレ1 1-3,                   !- Name
  {acba74e8-e86f-45fd-a08f-de51dbb3bb27}, !- Space Type Name
  ,                                       !- Default Construction Set Name
  ,                                       !- Default Schedule Set Name
  ,                                       !- Direction of Relative North {deg}
  ,                                       !- X Origin {m}
  ,                                       !- Y Origin {m}
  ,                                       !- Z Origin {m}
  ,                                       !- Building Story Name
  {245fee5a-3af2-4edb-b284-aab9100fb5ba}, !- Thermal Zone Name
  ,                                       !- Part of Total Floor Area
  ,                                       !- Design Specification Outdoor Air Object Name
  ;                                       !- Building Unit Name

OS:Construction,
  {d47c9bf2-d9eb-4400-8b71-4a1d84ec520d}, !- Handle
  R-13 木製フレーム壁,             !- Name
  {e1d4833b-5cd9-4a7a-95a5-35be737d51b1}, !- Surface Rendering Name
  {d65c3399-fa09-4505-ae7d-36be0c01bae8}, !- Layer 1
  {8d4f7cfb-2314-4d52-9509-bfc3b65688cc}, !- Layer 2
  {a92067e6-b261-4e5b-940e-7407cd652757}, !- Layer 3
  {e6473c28-e938-4dd7-b258-ff509e0a01b6}, !- Layer 4
  {34663a44-6983-49bf-82f6-14eca1ce6a31}; !- Layer 5

OS:Material,
  {4f35257c-4492-4abb-b2c7-158349e4dafc}, !- Handle
  木目シングル(WS01),               !- Name
  MediumRough,                            !- Roughness
  0.017769,                               !- Thickness {m}
  0.11544,                                !- Conductivity {W/m-K}
  512.64,                                 !- Density {kg/m3}
  1256.04;                                !- Specific Heat {J/kg-K}

OS:AdditionalProperties,
  {3062d716-e7e5-4f0c-bdb8-f8cef9bd60f1}, !- Handle
  {4f35257c-4492-4abb-b2c7-158349e4dafc}, !- Object Name
  gbXMLId,                                !- Feature Name 1
  String,                                 !- Feature Data Type 1
  aim0034;                                !- Feature Value 1

OS:Material:NoMass,
  {fd3325ef-189c-4858-87e1-ebd5620e2959}, !- Handle
  建築用フエルト紙(BP01),         !- Name
  Smooth,                                 !- Roughness
  0.01057;                                !- Thermal Resistance {m2-K/W}

OS:AdditionalProperties,
  {29cab7c4-1050-4daa-8ecc-cb1fd990006e}, !- Handle
  {fd3325ef-189c-4858-87e1-ebd5620e2959}, !- Object Name
  gbXMLId,                                !- Feature Name 1
  String,                                 !- Feature Data Type 1
  aim0041;                                !- Feature Value 1

OS:Material,
  {10515f2f-fe3a-4e14-b32b-e3b781a14d53}, !- Handle
  木材 ソフト 3/4 インチ(WD01),   !- Name
  MediumRough,                            !- Roughness
  0.019049,                               !- Thickness {m}
  0.11544,                                !- Conductivity {W/m-K}
  512.64,                                 !- Density {kg/m3}
  1381.644;                               !- Specific Heat {J/kg-K}

OS:AdditionalProperties,
  {1d3ca8f9-bf39-4481-b375-24549741d408}, !- Handle
  {10515f2f-fe3a-4e14-b32b-e3b781a14d53}, !- Object Name
  gbXMLId,                                !- Feature Name 1
  String,                                 !- Feature Data Type 1
  aim0044;                                !- Feature Value 1

OS:Material:NoMass,
  {2c5f6216-9e99-462d-bc98-5db632f36046}, !- Handle
  ミネラル ウール芯材 R13 2x4 フレーム付き, !- Name
  Smooth,                                 !- Roughness
  1.6255;                                 !- Thermal Resistance {m2-K/W}

OS:AdditionalProperties,
  {b06b3d1d-e1d6-4f67-aaaf-014c5a12c468}, !- Handle
  {2c5f6216-9e99-462d-bc98-5db632f36046}, !- Object Name
  gbXMLId,                                !- Feature Name 1
  String,                                 !- Feature Data Type 1
  aim0051;                                !- Feature Value 1

OS:Material,
  {18df965d-999a-4a78-af5b-91ebae1dc99a}, !- Handle
  石膏ボード 5/8 インチ(GP02),    !- Name
  MediumRough,                            !- Roughness
  0.015879,                               !- Thickness {m}
  0.160266,                               !- Conductivity {W/m-K}
  801,                                    !- Density {kg/m3}
  837.36;                                 !- Specific Heat {J/kg-K}

OS:AdditionalProperties,
  {0ec3faaf-702a-4896-a318-be3078a7f03d}, !- Handle
  {18df965d-999a-4a78-af5b-91ebae1dc99a}, !- Object Name
  gbXMLId,                                !- Feature Name 1
  String,                                 !- Feature Data Type 1
  aim0018;                                !- Feature Value 1

OS:Construction,
  {69571032-e721-419f-b033-6ce4ca6f08bf}, !- Handle
  スラブ エッジ非断熱,           !- Name
  {7bb2832b-bb22-42b8-a83e-3ae44be90e48}, !- Surface Rendering Name
  {821c1540-31e1-4579-aecc-3865b5a374f5}, !- Layer 1
  {72eaf3d4-82f5-4378-bbb7-fbd67d65f20b}, !- Layer 2
  {1dca3e9e-3879-4f5a-bdbb-7042745200bc}, !- Layer 3
  {f9ec8e2a-77b2-4d67-9876-bcb2695761d6}; !- Layer 4

OS:Material:NoMass,
  {1b1846f4-d079-4040-be5c-67d0f6082e0c}, !- Handle
  UG サーフェス仮想断熱材,      !- Name
  Smooth,                                 !- Roughness
  5.28331;                                !- Thermal Resistance {m2-K/W}

OS:AdditionalProperties,
  {3f268460-7cf6-4a8f-b379-b49d03dc903f}, !- Handle
  {1b1846f4-d079-4040-be5c-67d0f6082e0c}, !- Object Name
  gbXMLId,                                !- Feature Name 1
  String,                                 !- Feature Data Type 1
  aim0069;                                !- Feature Value 1

OS:Material,
  {9ff50f7d-41ad-41bc-ad7a-af83ae392d9b}, !- Handle
  土 8 インチ,                        !- Name
  MediumRough,                            !- Roughness
  0.204206,                               !- Thickness {m}
  1.730735,                               !- Conductivity {W/m-K}
  1842.3,                                 !- Density {kg/m3}
  837.36;                                 !- Specific Heat {J/kg-K}

OS:AdditionalProperties,
  {85f32d68-d298-4d28-b811-583b5c351c19}, !- Handle
  {9ff50f7d-41ad-41bc-ad7a-af83ae392d9b}, !- Object Name
  gbXMLId,                                !- Feature Name 1
  String,                                 !- Feature Data Type 1
  aim0072;                                !- Feature Value 1

OS:Material,
  {4a09f781-2bed-4527-88d6-ece1a96bb06c}, !- Handle
  コンクリート 重量 140 ポンド 8 インチ(CC05), !- Name
  MediumRough,                            !- Roughness
  0.2032,                                 !- Thickness {m}
  1.311205,                               !- Conductivity {W/m-K}
  2242.8,                                 !- Density {kg/m3}
  837.36;                                 !- Specific Heat {J/kg-K}

OS:AdditionalProperties,
  {2b176b53-6b80-43cb-9d52-1974c6df750d}, !- Handle
  {4a09f781-2bed-4527-88d6-ece1a96bb06c}, !- Object Name
  gbXMLId,                                !- Feature Name 1
  String,                                 !- Feature Data Type 1
  aim0079;                                !- Feature Value 1

OS:Material:NoMass,
  {af31afad-9943-4dbb-b1d8-706b10814caf}, !- Handle
  カーペット繊維パッド(CP01),   !- Name
  Smooth,                                 !- Roughness
  0.36631;                                !- Thermal Resistance {m2-K/W}

OS:AdditionalProperties,
  {4196c16a-df1f-4b5e-b9ba-525eff6952a4}, !- Handle
  {af31afad-9943-4dbb-b1d8-706b10814caf}, !- Object Name
  gbXMLId,                                !- Feature Name 1
  String,                                 !- Feature Data Type 1
  aim0086;                                !- Feature Value 1

OS:Construction,
  {afb2b5e1-f74d-4674-b9b1-1ffea6a9cd98}, !- Handle
  R-0 メタル フレーム壁,          !- Name
  {92afcb80-f560-4594-a550-6fed2d88fbd0}, !- Surface Rendering Name
  {9fc999ac-d501-4c8d-84b9-fc03ac468170}, !- Layer 1
  {dcfb9575-d27b-489c-bb34-6362cd75fb9a}, !- Layer 2
  {9fc999ac-d501-4c8d-84b9-fc03ac468170}; !- Layer 3

OS:Material:NoMass,
  {b251f5b1-4c7c-465a-8e9c-654421b2e6a9}, !- Handle
  通気スペース,                     !- Name
  Smooth,                                 !- Roughness
  0.10919;                                !- Thermal Resistance {m2-K/W}

OS:AdditionalProperties,
  {3ffaf900-1692-4f11-b844-694042641a3d}, !- Handle
  {b251f5b1-4c7c-465a-8e9c-654421b2e6a9}, !- Object Name
  gbXMLId,                                !- Feature Name 1
  String,                                 !- Feature Data Type 1
  aim0025;                                !- Feature Value 1

OS:Construction,
  {05960d13-3855-4c90-a715-6879efb09eff}, !- Handle
  パッシブフロア- 断熱材なし- カーペットまたは硬質木材, !- Name
  {953021fd-430d-456f-907b-981f2ebaabdd}, !- Surface Rendering Name
  {f0765c17-ec2c-42e8-a026-adf89ea999b8}, !- Layer 1
  {824b9b86-e199-4e35-a70c-09fa2dfc504a}; !- Layer 2

OS:Material,
  {f0765c17-ec2c-42e8-a026-adf89ea999b8}, !- Handle
  カーペット,                        !- Name
  MediumRough,                            !- Roughness
  0.0127,                                 !- Thickness {m}
  0.06,                                   !- Conductivity {W/m-K}
  288,                                    !- Density {kg/m3}
  1380;                                   !- Specific Heat {J/kg-K}

OS:AdditionalProperties,
  {0a306e79-226d-40e8-8f7a-c8bbebc93cb4}, !- Handle
  {f0765c17-ec2c-42e8-a026-adf89ea999b8}, !- Object Name
  gbXMLId,                                !- Feature Name 1
  String,                                 !- Feature Data Type 1
  aim0093;                                !- Feature Value 1

OS:Material:NoMass,
  {824b9b86-e199-4e35-a70c-09fa2dfc504a}, !- Handle
  断熱材なし,                        !- Name
  Smooth,                                 !- Roughness
  0.001;                                  !- Thermal Resistance {m2-K/W}

OS:AdditionalProperties,
  {382a1d1a-7817-4bb6-8ba1-f38ff623af23}, !- Handle
  {824b9b86-e199-4e35-a70c-09fa2dfc504a}, !- Object Name
  gbXMLId,                                !- Feature Name 1
  String,                                 !- Feature Data Type 1
  aim0099;                                !- Feature Value 1

OS:ThermalZone,
  {245fee5a-3af2-4edb-b284-aab9100fb5ba}, !- Handle
  ゾーン 既定値_4,                  !- Name
  ,                                       !- Multiplier
  ,                                       !- Ceiling Height {m}
  ,                                       !- Volume {m3}
  ,                                       !- Floor Area {m2}
  ,                                       !- Zone Inside Convection Algorithm
  ,                                       !- Zone Outside Convection Algorithm
  ,                                       !- Zone Conditioning Equipment List Name
  {2c024464-879f-44f8-b6a2-d3beca65ec08}, !- Zone Air Inlet Port List
  {4dd8a8d3-cc49-42c2-9550-05c0347187a8}, !- Zone Air Exhaust Port List
  {0e972f1d-305d-4455-950a-97a294db5d36}, !- Zone Air Node Name
  {3271452d-e90a-4cd0-b022-89d8478bdb22}, !- Zone Return Air Port List
  ,                                       !- Primary Daylighting Control Name
  ,                                       !- Fraction of Zone Controlled by Primary Daylighting Control
  ,                                       !- Secondary Daylighting Control Name
  ,                                       !- Fraction of Zone Controlled by Secondary Daylighting Control
  ,                                       !- Illuminance Map Name
  {a7c8ba8c-21c9-4674-99e4-3fc8ca42a877}, !- Group Rendering Name
  {532acdf4-f196-467e-b948-005aed9504b8}, !- Thermostat Name
  No,                                     !- Use Ideal Air Loads
  {d7a3e86d-72d1-48fd-9193-3ee1172ac323}; !- Humidistat Name

OS:Node,
  {8332fb94-1bea-468b-9cf5-5f8b25299f86}, !- Handle
  Node 1,                                 !- Name
  {0e972f1d-305d-4455-950a-97a294db5d36}, !- Inlet Port
  ;                                       !- Outlet Port

OS:Connection,
  {0e972f1d-305d-4455-950a-97a294db5d36}, !- Handle
  {245fee5a-3af2-4edb-b284-aab9100fb5ba}, !- Source Object
  11,                                     !- Outlet Port
  {8332fb94-1bea-468b-9cf5-5f8b25299f86}, !- Target Object
  2;                                      !- Inlet Port

OS:PortList,
  {2c024464-879f-44f8-b6a2-d3beca65ec08}, !- Handle
  {245fee5a-3af2-4edb-b284-aab9100fb5ba}; !- HVAC Component

OS:PortList,
  {4dd8a8d3-cc49-42c2-9550-05c0347187a8}, !- Handle
  {245fee5a-3af2-4edb-b284-aab9100fb5ba}; !- HVAC Component

OS:PortList,
  {3271452d-e90a-4cd0-b022-89d8478bdb22}, !- Handle
  {245fee5a-3af2-4edb-b284-aab9100fb5ba}; !- HVAC Component

OS:Sizing:Zone,
  {e9a3a970-3136-4ab2-8d15-25dc78f79214}, !- Handle
  {245fee5a-3af2-4edb-b284-aab9100fb5ba}, !- Zone or ZoneList Name
  SupplyAirTemperature,                   !- Zone Cooling Design Supply Air Temperature Input Method
  14,                                     !- Zone Cooling Design Supply Air Temperature {C}
  11.11,                                  !- Zone Cooling Design Supply Air Temperature Difference {deltaC}
  SupplyAirTemperature,                   !- Zone Heating Design Supply Air Temperature Input Method
  40,                                     !- Zone Heating Design Supply Air Temperature {C}
  11.11,                                  !- Zone Heating Design Supply Air Temperature Difference {deltaC}
  0.0085,                                 !- Zone Cooling Design Supply Air Humidity Ratio {kg-H2O/kg-air}
  0.008,                                  !- Zone Heating Design Supply Air Humidity Ratio {kg-H2O/kg-air}
  ,                                       !- Zone Heating Sizing Factor
  ,                                       !- Zone Cooling Sizing Factor
  DesignDay,                              !- Cooling Design Air Flow Method
  ,                                       !- Cooling Design Air Flow Rate {m3/s}
  ,                                       !- Cooling Minimum Air Flow per Zone Floor Area {m3/s-m2}
  ,                                       !- Cooling Minimum Air Flow {m3/s}
  ,                                       !- Cooling Minimum Air Flow Fraction
  DesignDay,                              !- Heating Design Air Flow Method
  ,                                       !- Heating Design Air Flow Rate {m3/s}
  ,                                       !- Heating Maximum Air Flow per Zone Floor Area {m3/s-m2}
  ,                                       !- Heating Maximum Air Flow {m3/s}
  ,                                       !- Heating Maximum Air Flow Fraction
  No,                                     !- Account for Dedicated Outdoor Air System
  NeutralSupplyAir,                       !- Dedicated Outdoor Air System Control Strategy
  autosize,                               !- Dedicated Outdoor Air Low Setpoint Temperature for Design {C}
  autosize;                               !- Dedicated Outdoor Air High Setpoint Temperature for Design {C}

OS:ZoneHVAC:EquipmentList,
  {e235d4cd-4251-4d34-92f3-0b2a3dbe97e0}, !- Handle
  Zone HVAC Equipment List 1,             !- Name
  {245fee5a-3af2-4edb-b284-aab9100fb5ba}; !- Thermal Zone

OS:SpaceType,
  {acba74e8-e86f-45fd-a08f-de51dbb3bb27}, !- Handle
  OfficeEnclosed,                         !- Name
  ,                                       !- Default Construction Set Name
  {3554b7b8-8c15-492e-b34b-ce3a7687af45}, !- Default Schedule Set Name
  {cf9bb309-9f8d-4efc-b202-4271a3f35f9a}; !- Group Rendering Name

OS:Space,
  {8916e3fd-d40d-461e-89d2-0927fa5d1ca1}, !- Handle
  空調機械室2 2-2,                   !- Name
  {acba74e8-e86f-45fd-a08f-de51dbb3bb27}, !- Space Type Name
  ,                                       !- Default Construction Set Name
  ,                                       !- Default Schedule Set Name
  ,                                       !- Direction of Relative North {deg}
  ,                                       !- X Origin {m}
  ,                                       !- Y Origin {m}
  ,                                       !- Z Origin {m}
  ,                                       !- Building Story Name
  {acefde53-b7da-4038-b2a7-3b122aaaa490}, !- Thermal Zone Name
  ,                                       !- Part of Total Floor Area
  ,                                       !- Design Specification Outdoor Air Object Name
  ;                                       !- Building Unit Name

OS:Construction,
  {398305aa-144e-4ce8-9ecc-017f194f7a06}, !- Handle
  木製,                                 !- Name
  {13c56d5f-d07a-46aa-925e-df4e97567c9b}, !- Surface Rendering Name
  {2222685a-5073-4805-8118-466635269eb7}; !- Layer 1

OS:Material,
  {520fbdf3-1088-4dcf-92f1-7ea69ad01a86}, !- Handle
  1 1/2 インチ木材,                  !- Name
  MediumRough,                            !- Roughness
  0.0376,                                 !- Thickness {m}
  0.15,                                   !- Conductivity {W/m-K}
  608,                                    !- Density {kg/m3}
  1630;                                   !- Specific Heat {J/kg-K}

OS:AdditionalProperties,
  {debe1737-ad06-4fe4-8aaf-6c2378f4aeba}, !- Handle
  {520fbdf3-1088-4dcf-92f1-7ea69ad01a86}, !- Object Name
  gbXMLId,                                !- Feature Name 1
  String,                                 !- Feature Data Type 1
  aim0059;                                !- Feature Value 1

OS:ThermalZone,
  {acefde53-b7da-4038-b2a7-3b122aaaa490}, !- Handle
  ゾーン 既定値_8,                  !- Name
  ,                                       !- Multiplier
  ,                                       !- Ceiling Height {m}
  ,                                       !- Volume {m3}
  ,                                       !- Floor Area {m2}
  ,                                       !- Zone Inside Convection Algorithm
  ,                                       !- Zone Outside Convection Algorithm
  ,                                       !- Zone Conditioning Equipment List Name
  {98c65ee6-ba17-476d-b7c7-14a1a7d54334}, !- Zone Air Inlet Port List
  {e815a2cb-d9b7-4eeb-b6b4-4c1e363f216d}, !- Zone Air Exhaust Port List
  {f1074072-ecec-4863-9e3f-d245f29adb9c}, !- Zone Air Node Name
  {7d0a2938-25a5-44c7-afc6-5b21930337a6}, !- Zone Return Air Port List
  ,                                       !- Primary Daylighting Control Name
  ,                                       !- Fraction of Zone Controlled by Primary Daylighting Control
  ,                                       !- Secondary Daylighting Control Name
  ,                                       !- Fraction of Zone Controlled by Secondary Daylighting Control
  ,                                       !- Illuminance Map Name
  {a937e414-a499-4690-a8a8-5af351a3981a}, !- Group Rendering Name
  {15b01807-25b4-407d-af5d-682cc0cfa6a6}, !- Thermostat Name
  No,                                     !- Use Ideal Air Loads
  {3b620b9c-9f3d-474f-b791-52b931a6a0f3}; !- Humidistat Name

OS:Node,
  {dd5a10cc-7a54-4381-8424-1a991456bbeb}, !- Handle
  Node 2,                                 !- Name
  {f1074072-ecec-4863-9e3f-d245f29adb9c}, !- Inlet Port
  ;                                       !- Outlet Port

OS:Connection,
  {f1074072-ecec-4863-9e3f-d245f29adb9c}, !- Handle
  {acefde53-b7da-4038-b2a7-3b122aaaa490}, !- Source Object
  11,                                     !- Outlet Port
  {dd5a10cc-7a54-4381-8424-1a991456bbeb}, !- Target Object
  2;                                      !- Inlet Port

OS:PortList,
  {98c65ee6-ba17-476d-b7c7-14a1a7d54334}, !- Handle
  {acefde53-b7da-4038-b2a7-3b122aaaa490}; !- HVAC Component

OS:PortList,
  {e815a2cb-d9b7-4eeb-b6b4-4c1e363f216d}, !- Handle
  {acefde53-b7da-4038-b2a7-3b122aaaa490}; !- HVAC Component

OS:PortList,
  {7d0a2938-25a5-44c7-afc6-5b21930337a6}, !- Handle
  {acefde53-b7da-4038-b2a7-3b122aaaa490}; !- HVAC Component

OS:Sizing:Zone,
  {33d58152-eb0e-4768-9a45-d59e3a0104bd}, !- Handle
  {acefde53-b7da-4038-b2a7-3b122aaaa490}, !- Zone or ZoneList Name
  SupplyAirTemperature,                   !- Zone Cooling Design Supply Air Temperature Input Method
  14,                                     !- Zone Cooling Design Supply Air Temperature {C}
  11.11,                                  !- Zone Cooling Design Supply Air Temperature Difference {deltaC}
  SupplyAirTemperature,                   !- Zone Heating Design Supply Air Temperature Input Method
  40,                                     !- Zone Heating Design Supply Air Temperature {C}
  11.11,                                  !- Zone Heating Design Supply Air Temperature Difference {deltaC}
  0.0085,                                 !- Zone Cooling Design Supply Air Humidity Ratio {kg-H2O/kg-air}
  0.008,                                  !- Zone Heating Design Supply Air Humidity Ratio {kg-H2O/kg-air}
  ,                                       !- Zone Heating Sizing Factor
  ,                                       !- Zone Cooling Sizing Factor
  DesignDay,                              !- Cooling Design Air Flow Method
  ,                                       !- Cooling Design Air Flow Rate {m3/s}
  ,                                       !- Cooling Minimum Air Flow per Zone Floor Area {m3/s-m2}
  ,                                       !- Cooling Minimum Air Flow {m3/s}
  ,                                       !- Cooling Minimum Air Flow Fraction
  DesignDay,                              !- Heating Design Air Flow Method
  ,                                       !- Heating Design Air Flow Rate {m3/s}
  ,                                       !- Heating Maximum Air Flow per Zone Floor Area {m3/s-m2}
  ,                                       !- Heating Maximum Air Flow {m3/s}
  ,                                       !- Heating Maximum Air Flow Fraction
  No,                                     !- Account for Dedicated Outdoor Air System
  NeutralSupplyAir,                       !- Dedicated Outdoor Air System Control Strategy
  autosize,                               !- Dedicated Outdoor Air Low Setpoint Temperature for Design {C}
  autosize;                               !- Dedicated Outdoor Air High Setpoint Temperature for Design {C}

OS:ZoneHVAC:EquipmentList,
  {57c3f2de-a49d-482e-b728-1c6d2e7da437}, !- Handle
  Zone HVAC Equipment List 2,             !- Name
  {acefde53-b7da-4038-b2a7-3b122aaaa490}, !- Thermal Zone
  ;                                       !- Load Distribution Scheme

OS:Space,
  {1551261f-16d2-4620-ad15-5559629fcef2}, !- Handle
  女子トイレ1 1-4,                   !- Name
  {acba74e8-e86f-45fd-a08f-de51dbb3bb27}, !- Space Type Name
  ,                                       !- Default Construction Set Name
  ,                                       !- Default Schedule Set Name
  ,                                       !- Direction of Relative North {deg}
  ,                                       !- X Origin {m}
  ,                                       !- Y Origin {m}
  ,                                       !- Z Origin {m}
  ,                                       !- Building Story Name
  {1755beef-b4f6-4093-b212-cb672bedd675}, !- Thermal Zone Name
  ,                                       !- Part of Total Floor Area
  ,                                       !- Design Specification Outdoor Air Object Name
  ;                                       !- Building Unit Name

OS:ThermalZone,
  {1755beef-b4f6-4093-b212-cb672bedd675}, !- Handle
  ゾーン 既定値_5,                  !- Name
  ,                                       !- Multiplier
  ,                                       !- Ceiling Height {m}
  ,                                       !- Volume {m3}
  ,                                       !- Floor Area {m2}
  ,                                       !- Zone Inside Convection Algorithm
  ,                                       !- Zone Outside Convection Algorithm
  ,                                       !- Zone Conditioning Equipment List Name
  {e53f412e-a1b5-4eb4-8d8b-d0e8d1ddd3d6}, !- Zone Air Inlet Port List
  {7c90a5d8-1147-49a0-b062-810bc81a8247}, !- Zone Air Exhaust Port List
  {f4663c9f-b52f-4a9e-9f8c-9f601e9ad67e}, !- Zone Air Node Name
  {a6f16826-8f2b-44a7-a174-a84b6871490d}, !- Zone Return Air Port List
  ,                                       !- Primary Daylighting Control Name
  ,                                       !- Fraction of Zone Controlled by Primary Daylighting Control
  ,                                       !- Secondary Daylighting Control Name
  ,                                       !- Fraction of Zone Controlled by Secondary Daylighting Control
  ,                                       !- Illuminance Map Name
  {964415be-cadf-4346-b7aa-b426dd9d8022}, !- Group Rendering Name
  {9046528e-ea8f-41ae-b722-b6378eb95826}, !- Thermostat Name
  No,                                     !- Use Ideal Air Loads
  {8147b1bf-df8e-4636-a73c-de9256c03001}; !- Humidistat Name

OS:Node,
  {1c6299ec-f383-4049-a1e4-3825fb2c3c3d}, !- Handle
  Node 3,                                 !- Name
  {f4663c9f-b52f-4a9e-9f8c-9f601e9ad67e}, !- Inlet Port
  ;                                       !- Outlet Port

OS:Connection,
  {f4663c9f-b52f-4a9e-9f8c-9f601e9ad67e}, !- Handle
  {1755beef-b4f6-4093-b212-cb672bedd675}, !- Source Object
  11,                                     !- Outlet Port
  {1c6299ec-f383-4049-a1e4-3825fb2c3c3d}, !- Target Object
  2;                                      !- Inlet Port

OS:PortList,
  {e53f412e-a1b5-4eb4-8d8b-d0e8d1ddd3d6}, !- Handle
  {1755beef-b4f6-4093-b212-cb672bedd675}; !- HVAC Component

OS:PortList,
  {7c90a5d8-1147-49a0-b062-810bc81a8247}, !- Handle
  {1755beef-b4f6-4093-b212-cb672bedd675}; !- HVAC Component

OS:PortList,
  {a6f16826-8f2b-44a7-a174-a84b6871490d}, !- Handle
  {1755beef-b4f6-4093-b212-cb672bedd675}; !- HVAC Component

OS:Sizing:Zone,